180
temp
C      0.807164 -2.063008  4.811261
C     -0.043637 -0.793208  4.944893
C     -1.246153 -1.085764  5.853640
C      0.791638  0.329257  5.579052
C     -0.585299 -0.309488  3.567507
H     -1.252716  0.541959  3.754647
N     -1.379002 -1.338917  2.895222
C     -2.697984 -1.311152  2.812763
C     -3.780068 -0.467210  3.362218
C     -4.767166 -1.364860  2.656949
O     -5.991856 -1.412141  2.534396
O     -3.841959  0.553992  4.036955
C     -3.628082 -2.119115  2.114083
N     -3.491092 -3.137089  1.266289
C     -4.660120 -3.708720  0.585033
H     -5.508969 -3.578766  1.267139
C     -4.514035 -5.229009  0.339032
C     -3.228926 -5.600321 -0.413743
C     -4.512170 -5.926706  1.707972
C     -5.740547 -5.691793 -0.459920
C     -4.926148 -2.860541 -0.677117
N     -5.880019 -1.917258 -0.497420
C     -6.164113 -0.894842 -1.502145
C     -5.153612  0.247970 -1.502159
C     -4.228043  0.427333 -0.478345
C     -3.349373  1.508340 -0.496567
C     -3.386138  2.421710 -1.543584
C     -4.302385  2.242629 -2.579751
C     -5.180633  1.164247 -2.557675
C     -7.579761 -0.387769 -1.286713
C     -7.869961  0.456810 -0.212058
C     -9.173748  0.888099  0.009663
C     -10.198329  0.490071 -0.848208
C     -9.912956 -0.346078 -1.924330
C     -8.608470 -0.786557 -2.139641
O     -4.296453 -2.992947 -1.726058
C      0.520355  0.144592  2.610562
N     -0.040978  0.545976  1.299350
P      0.837757  1.686805  0.458347
H      1.710042 -1.896545  4.214573
H      0.237386 -2.880907  4.356604
H      1.125807 -2.393154  5.806169
H     -1.874260 -0.195755  5.973661
H     -0.895453 -1.397724  6.843400
H     -1.868197 -1.891439  5.449030
H      1.743304  0.479957  5.057924
H      1.023948  0.073040  6.618273
H      0.241186  1.278629  5.580065
H     -0.884243 -2.002313  2.292970
H     -2.569672 -3.283626  0.850261
H     -2.331016 -5.344434  0.160456
H     -3.175040 -5.104105 -1.384893
H     -3.211931 -6.684725 -0.571379
H     -5.438040 -5.720784  2.258064
H     -3.666434 -5.596362  2.320437
H     -4.429523 -7.010482  1.571497
H     -6.670798 -5.405623  0.046092
H     -5.729819 -6.782742 -0.555413
H     -5.746823 -5.263212 -1.467325
H     -6.276812 -1.798036  0.431010
H     -7.070536  0.781766  0.450490
H     -9.389950  1.541632  0.850252
H     -11.215122  0.833334 -0.678762
H     -10.706269 -0.657885 -2.598138
H     -8.386517 -1.444463 -2.976772
H      1.269348 -0.647929  2.475545
H      1.024166  1.005958  3.059104
C      4.429204  0.084066 -0.596911
C      5.236019  0.494844  0.462938
H      6.274196  0.182640  0.483362
C      4.762790  1.299591  1.512470
C      5.713354  1.713129  2.636681
C      3.429839  1.694852  1.486073
H      3.023300  2.311395  2.279607
C      2.605015  1.306477  0.421729
C      3.096410  0.510523 -0.607858
H      2.440423  0.218124 -1.422481
C     -0.809275  4.683661  2.651429
C     -0.548206  3.439487  2.064849
C      0.595655  3.257559  1.296045
C      1.504260  4.303650  1.087463
C      1.263482  5.551034  1.651911
C      0.102701  5.713506  2.426952
C     -0.154047  3.131476 -3.193695
C      0.193273  3.022310 -1.847198
H      0.436891  3.912465 -1.275783
C      0.222782  1.771907 -1.229335
C     -0.100770  0.611431 -1.933926
C     -0.454653  0.696754 -3.282505
C     -0.470160  1.958955 -3.886291
H     -0.740501  2.029533 -4.931599
H     -0.074510 -0.359240 -1.441732
H     -0.299577 -0.275049  0.739318
H      2.387515  4.130553  0.482545
H     -0.086911  6.685679  2.868032
H     -1.234171  2.609746  2.205296
H     -5.897709  1.030234 -3.365530
H     -4.330630  2.945149 -3.408843
H     -2.629990  1.626466  0.309654
H     -2.694375  3.258311 -1.560369
H     -4.183738 -0.278480  0.343892
H     -6.113090 -1.384605 -2.482671
C      6.248155  0.449690  3.338061
H      6.926954  0.734409  4.149937
H      6.800450 -0.194264  2.646502
H      5.424241 -0.133136  3.764939
C      5.023318  2.593801  3.685135
H      4.640863  3.522937  3.246306
H      5.747666  2.864148  4.460282
H      4.192594  2.070483  4.172391
C      6.889782  2.506924  2.036025
H      7.573853  2.818053  2.833666
H      6.527441  3.404720  1.522483
H      7.458912  1.908047  1.318123
C      4.929414 -0.812194 -1.730550
C      6.416160 -1.156130 -1.588978
H      6.619192 -1.705761 -0.663146
H      7.043843 -0.257990 -1.607243
H      6.718173 -1.792798 -2.426958
C      4.118931 -2.123856 -1.718570
H      3.049410 -1.940712 -1.864758
H      4.246269 -2.650086 -0.766121
H      4.463108 -2.780699 -2.525634
C      4.720130 -0.094732 -3.078258
H      3.662876  0.120726 -3.264113
H      5.081045 -0.729660 -3.895264
H      5.273300  0.850776 -3.105154
C     -0.173752  4.515178 -3.847519
C     -0.803510 -0.583934 -4.040571
C     -0.524116  4.450342 -5.338218
H     -1.522684  4.030134 -5.501956
H      0.202421  3.852454 -5.899670
H     -0.516670  5.463650 -5.753068
C     -1.221008  5.396552 -3.139515
H     -1.009285  5.496885 -2.069451
H     -2.224906  4.972137 -3.252541
H     -1.221458  6.400019 -3.580401
C      1.217554  5.162733 -3.701369
H      1.221570  6.147290 -4.182711
H      1.985967  4.542361 -4.175966
H      1.491583  5.302077 -2.650255
C      0.398973 -1.547025 -3.980605
H      0.166148 -2.464758 -4.532576
H      0.637995 -1.828833 -2.950037
H      1.288198 -1.089150 -4.429784
C     -1.142973 -0.318533 -5.511360
H     -0.302365  0.133451 -6.050296
H     -2.016692  0.335302 -5.613136
H     -1.380584 -1.269499 -5.999210
C     -2.020973 -1.243720 -3.367970
H     -2.886420 -0.571518 -3.381666
H     -1.816478 -1.510304 -2.326792
H     -2.290710 -2.163264 -3.899056
C      2.210382  6.734206  1.450343
C     -2.066102  4.851877  3.506075
C      2.701215  7.234266  2.822658
H      1.873035  7.573793  3.452378
H      3.387929  8.077199  2.685950
H      3.233660  6.438476  3.355820
C      1.450234  7.864902  0.730121
H      2.117070  8.720026  0.571720
H      0.590547  8.209245  1.313660
H      1.087333  7.524233 -0.246519
C      3.434772  6.358876  0.607659
H      4.023827  5.564107  1.080360
H      4.081139  7.236119  0.501571
H      3.150483  6.030619 -0.398669
C     -2.229590  6.284981  4.024153
H     -1.393704  6.582847  4.666942
H     -3.146269  6.347765  4.619375
H     -2.313126  7.005797  3.202919
C     -1.976043  3.899654  4.715084
H     -2.866594  4.011709  5.343864
H     -1.091985  4.125351  5.322130
H     -1.921355  2.852867  4.399444
C     -3.306347  4.490925  2.664883
H     -3.281727  3.449682  2.328037
H     -3.379007  5.136276  1.782130
H     -4.212341  4.623876  3.266523
Cl     -0.235674 -2.645400  0.156807
