43
temp
O     -2.432712  1.931257  1.338224
O      2.262349  1.549193  1.362680
H     -0.263473  3.656720 -0.914749
C      2.172562  1.645421 -1.671439
H      0.083953  3.221124  0.803313
H      2.953077 -0.311902 -3.308480
C      2.250382  0.187623 -1.342672
C      2.701221 -0.700037 -2.324797
C     -0.683770  3.516575  0.084458
C      1.546074  0.586369  1.067083
C      1.906244 -0.317089 -0.077413
C      2.826878 -2.057600 -2.065951
S     -1.921609  2.218403 -0.011268
H      3.184746 -2.726574 -2.843199
C      2.047741 -1.686448  0.178542
C      2.505253 -2.553055 -0.803917
H     -0.057902  1.987662  2.924808
N     -0.991693  0.851725 -0.492304
H      1.809541 -2.068870  1.166073
H      2.616011 -3.610680 -0.583412
H     -1.207513  4.418933  0.412677
N      0.470035  0.239471  1.831060
C      0.262518  0.954675  3.099004
O     -2.860102  2.576521 -1.090952
H     -2.280780 -0.920708 -2.428210
H     -0.515414  0.437846  3.662839
C     -1.251893 -0.373865  0.192612
C     -0.538577 -0.653608  1.367819
H      1.192873  0.965667  3.672907
C     -2.953694 -1.011702 -1.566336
C     -2.194240 -1.292153 -0.300647
H     -3.658294 -1.819512 -1.775157
H     -3.513859 -0.073107 -1.494206
C     -0.817571 -1.808579  2.095204
H     -0.265402 -2.006975  3.009703
C     -2.423140 -2.462671  0.423085
C     -1.761043 -2.709291  1.622736
H     -3.150042 -3.179173  0.049953
H     -1.969182 -3.617126  2.181222
Cl      0.990032  1.959167 -3.067283
H     -1.022149  0.775603 -1.507318
H      3.128901  2.027454 -2.034873
H      1.823661  2.253316 -0.841424
