221
temp
C      0.296898 -0.705506  5.007655
C      0.329003  0.670648  4.334986
C     -0.662527  1.601774  5.045694
C      1.733925  1.283547  4.461328
C     -0.034357  0.584317  2.819380
H      0.097030  1.590096  2.400712
N     -1.434433  0.205700  2.578374
C     -2.407278  1.090446  2.427450
C     -2.463318  2.563436  2.336081
C     -3.950060  2.450957  2.171412
O     -4.882622  3.237642  1.988623
O     -1.645913  3.476486  2.341990
C     -3.812430  0.991537  2.250836
N     -4.665721 -0.027442  2.176777
C     -6.106264  0.189265  1.962958
H     -6.335646  1.178588  2.377896
C     -6.969817 -0.830792  2.739086
C     -8.441412 -0.543169  2.409505
C     -6.637096 -2.292349  2.405971
C     -6.737255 -0.594821  4.240130
C     -6.339744  0.257106  0.435182
N     -6.143949  1.497036 -0.067855
C     -5.896708  1.736558 -1.491744
C     -4.472036  2.270435 -1.647532
C     -4.173961  3.461030 -2.308407
C     -2.855013  3.912949 -2.386083
C     -1.827372  3.188133 -1.793254
C     -2.118975  1.993806 -1.136160
C     -3.426694  1.533862 -1.078360
C     -6.953150  2.615136 -2.126939
C     -7.499588  3.707017 -1.449936
C     -8.437635  4.524519 -2.074627
C     -8.836821  4.261673 -3.383553
C     -8.293417  3.175094 -4.064696
C     -7.357247  2.356839 -3.437357
O     -6.590189 -0.730155 -0.258703
C      0.856373 -0.392319  2.045328
N      0.752649 -0.214456  0.587300
P      1.966469  0.465374 -0.293420
H      0.531920 -0.600725  6.072800
H      1.028234 -1.394539  4.571492
H     -0.697129 -1.160272  4.929737
H     -0.370843  1.710552  6.096015
H     -1.682158  1.202686  5.023585
H     -0.669662  2.595782  4.585379
H      1.809507  2.219574  3.892949
H      2.520405  0.608422  4.109956
H      1.943667  1.507757  5.512895
H     -1.677006 -0.782397  2.540398
H     -4.282929 -0.966669  2.070553
H     -8.664549 -0.753178  1.359144
H     -8.692316  0.504297  2.617020
H     -9.088607 -1.173847  3.028235
H     -5.601436 -2.547861  2.659529
H     -6.801266 -2.507611  1.348492
H     -7.283229 -2.946902  3.001771
H     -6.989897  0.434252  4.522038
H     -5.694041 -0.781108  4.516651
H     -7.368981 -1.273397  4.823388
H     -5.869543  2.233206  0.582291
H     -7.192691  3.927008 -0.430454
H     -8.857971  5.370013 -1.536928
H     -9.570759  4.899009 -3.868835
H     -8.603052  2.959587 -5.083677
H     -6.934881  1.506726 -3.969190
H      0.595981 -1.430430  2.286446
H      1.895099 -0.254513  2.356689
C      5.595392 -0.750749 -1.595979
C      5.846326 -1.853068 -0.762909
H      6.805682 -2.350361 -0.848903
C      4.919574 -2.334775  0.159112
C      5.209363 -3.547170  1.046272
C      3.681013 -1.679310  0.253492
H      2.917065 -2.045778  0.934197
C      3.429421 -0.567954 -0.540843
C      4.373811 -0.104210 -1.465276
H      4.143549  0.764252 -2.072930
C      2.272406  4.216162  1.287035
C      1.791044  3.086317  0.634294
C      2.564863  1.916602  0.603121
C      3.794409  1.856025  1.248310
C      4.280865  2.963991  1.951700
C      3.508685  4.121815  1.950845
C      1.357201  2.537987 -3.734682
C      1.798716  2.142468 -2.472985
H      2.507661  2.752451 -1.926377
C      1.318919  0.962178 -1.900291
C      0.404978  0.149654 -2.576195
C     -0.063526  0.534869 -3.833201
C      0.429543  1.721541 -4.385180
H      0.067180  2.026631 -5.362645
H      0.054526 -0.772645 -2.125186
H      0.002642 -0.735606  0.131714
H      4.378942  0.942988  1.201309
H      3.875171  4.995995  2.476654
H      0.832211  3.106937  0.126112
H     -3.638123  0.594816 -0.572631
H     -1.324934  1.416777 -0.671556
H     -2.636770  4.842890 -2.904639
H     -0.801808  3.541276 -1.847637
H     -4.970257  4.044933 -2.760505
H     -5.944970  0.750589 -1.972091
C      6.677410 -3.984962  0.973449
H      7.357239 -3.175969  1.265338
H      6.952751 -4.328284 -0.029537
H      6.833582 -4.822091  1.661896
C      4.322553 -4.718461  0.583846
H      4.545034 -4.986697 -0.454962
H      3.262559 -4.460117  0.654077
H      4.503094 -5.596153  1.216643
C      4.883307 -3.203880  2.512849
H      3.824673 -2.966405  2.649661
H      5.480520 -2.349638  2.853190
H      5.116075 -4.063002  3.152293
C      6.657144 -0.300649 -2.599612
C      7.952443  0.057229 -1.845678
H      8.349125 -0.798798 -1.290766
H      7.773352  0.872686 -1.135581
H      8.719314  0.382487 -2.557958
C      6.936337 -1.452277 -3.584769
H      6.023023 -1.730236 -4.122276
H      7.313003 -2.341368 -3.069204
H      7.689315 -1.141054 -4.317925
C      6.211068  0.927864 -3.401909
H      5.304258  0.725710 -3.983364
H      7.003410  1.206602 -4.104373
H      6.022748  1.789525 -2.750804
C      1.838968  3.829412 -4.397291
C     -1.098926 -0.279534 -4.611405
C      2.491887  3.490933 -5.751022
H      3.346142  2.819036 -5.609601
H      2.849758  4.408534 -6.231636
H      1.785204  3.006725 -6.432273
C      0.632040  4.760479 -4.624181
H      0.164273  5.025241 -3.668978
H     -0.128121  4.292233 -5.257693
H      0.960933  5.684230 -5.113873
C      2.866870  4.573544 -3.536607
H      3.178063  5.486038 -4.055622
H      3.762386  3.966621 -3.359045
H      2.447231  4.867921 -2.567262
C     -2.340578  0.599065 -4.864649
H     -3.096549  0.022036 -5.409675
H     -2.098849  1.485202 -5.460481
H     -2.776364  0.933380 -3.916054
C     -1.543416 -1.532502 -3.849688
H     -2.002779 -1.280656 -2.887936
H     -0.702092 -2.209942 -3.663417
H     -2.283884 -2.073030 -4.449150
C     -0.489425 -0.717493 -5.956955
H     -0.197428  0.141242 -6.570094
H     -1.222878 -1.303008 -6.523105
H      0.396996 -1.340466 -5.792789
C      5.634425  2.858749  2.655440
C      1.512687  5.543596  1.302447
C      6.033407  4.165914  3.348716
H      6.126887  4.991515  2.634322
H      7.005257  4.032790  3.835182
H      5.309794  4.452291  4.120077
C      6.715070  2.506390  1.613662
H      7.694806  2.441812  2.100610
H      6.766558  3.273905  0.833173
H      6.515580  1.543191  1.132153
C      5.566413  1.743459  3.716487
H      4.805926  1.973331  4.470933
H      6.535551  1.648395  4.219380
H      5.321207  0.774226  3.269215
C      0.297910  5.522334  0.367632
H     -0.440192  4.775284  0.672844
H      0.598270  5.321551 -0.668290
H     -0.191268  6.501963  0.391499
C      2.447268  6.678637  0.839487
H      3.300267  6.815280  1.511069
H      1.890262  7.621800  0.813136
H      2.831067  6.478069 -0.167590
C      1.034911  5.823045  2.740737
H      1.879857  5.886458  3.435105
H      0.361221  5.030001  3.081291
H      0.492870  6.775284  2.775406
O     -1.634151 -1.674820 -0.340392
O      1.288762 -3.682683  2.042158
H     -4.516478 -1.742165 -0.473636
C      0.111188 -4.085332 -1.060252
H     -4.689188 -3.488344 -0.141122
H      0.509065 -6.270875 -2.547656
C      0.531514 -5.396579 -0.588060
C      0.672988 -6.459320 -1.490776
C     -4.047594 -2.722270 -0.583714
C      0.476109 -4.588891  1.831369
C      0.710266 -5.644732  0.782182
C      1.055240 -7.718038 -1.054102
S     -2.481766 -2.714331  0.313373
H      1.177057 -8.525772 -1.769866
C      1.089970 -6.915287  1.217265
C      1.282295 -7.944286  0.304246
H     -1.498567 -4.524324  4.478254
N     -1.764231 -4.128587  0.105761
H      1.217081 -7.096724  2.281426
H      1.585769 -8.927290  0.652570
H     -3.835628 -2.944170 -1.632153
N     -0.628912 -4.792250  2.598437
C     -0.848812 -3.975272  3.792277
O     -2.855726 -2.415127  1.740854
H     -3.649087 -6.970332 -1.714657
H      0.111185 -3.778296  4.274143
C     -2.226804 -5.260433  0.800256
C     -1.693586 -5.580875  2.072573
H     -1.329829 -3.026889  3.531681
C     -3.591098 -5.996328 -1.219434
C     -3.123972 -6.171473  0.198986
H     -4.592092 -5.551768 -1.265569
H     -2.913004 -5.349886 -1.781414
C     -2.157203 -6.675281  2.793379
H     -1.734012 -6.890329  3.770853
C     -3.565026 -7.272217  0.936904
C     -3.115729 -7.509440  2.232005
H     -4.267241 -7.963716  0.476576
H     -3.476417 -8.371953  2.784786
Cl      1.949520 -3.529754 -2.503329
H      0.321580 -3.197080 -0.488832
H     -0.488613 -3.996982 -1.951427
