43
temp
O     -0.082281  2.832742  0.637297
O      0.295103 -0.504275 -1.808105
H     -2.321190  4.620484  0.497431
C      2.922671 -2.483783 -1.447517
H     -3.507151  3.417367 -0.134283
H      5.407598 -1.460275 -1.551271
C      3.331395 -1.079699 -1.157882
C      4.674818 -0.711791 -1.259860
C     -2.459499  3.723306 -0.112321
C      0.928841 -0.455570 -0.743947
C      2.390911 -0.113299 -0.770697
C      5.077308  0.593631 -0.998757
S     -1.499037  2.417280  0.664654
H      6.124866  0.865554 -1.089488
C      2.793791  1.195031 -0.507688
C      4.135129  1.548087 -0.624360
H      0.631451  0.192958  2.350328
N     -1.729623  1.107385 -0.406767
H      2.052639  1.931692 -0.209279
H      4.442424  2.569978 -0.421634
H     -2.069857  3.876528 -1.121631
N      0.347551 -0.687573  0.458098
C      1.053911 -0.616660  1.744328
O     -2.121737  2.047432  1.945936
H     -4.572961  1.234157  0.684916
H      0.949011 -1.562588  2.282960
C     -2.048828 -0.166749  0.154432
C     -1.035856 -1.064236  0.519813
H      2.113488 -0.427481  1.574077
C     -4.494960  0.431792 -0.058547
C     -3.397672 -0.525094  0.304559
H     -4.303129  0.904457 -1.026701
H     -5.456609 -0.085160 -0.097944
C     -1.356887 -2.331232  0.997879
H     -0.561457 -3.025295  1.253172
C     -3.696715 -1.792376  0.807860
C     -2.690399 -2.691431  1.143807
H     -4.738500 -2.079624  0.923876
H     -2.944956 -3.679617  1.515265
Cl      2.763690 -3.461051  0.127256
H     -0.962367  1.062164 -1.078743
H      3.671390 -3.012778 -2.037518
H      1.943663 -2.554365 -1.922984
