178
temp
C      0.155203 -1.896460  5.363707
C      0.101427 -0.498879  4.734717
C     -0.940004  0.356541  5.471572
C      1.468003  0.188784  4.874565
C     -0.269878 -0.561567  3.224892
H     -0.195158  0.457605  2.825824
N     -1.662931 -0.984410  3.023440
C     -2.649944 -0.166072  2.702293
C     -2.762496  1.293691  2.463664
C     -4.232130  1.073964  2.167809
O     -5.183816  1.766741  1.817385
O     -1.993965  2.240976  2.481669
C     -4.022127 -0.354059  2.433015
N     -4.830523 -1.425060  2.448518
C     -6.175249 -1.331272  1.857321
H     -6.531379 -0.316505  2.071622
C     -7.181542 -2.309189  2.504867
C     -8.495390 -2.207442  1.716719
C     -6.692562 -3.764273  2.512140
C     -7.421711 -1.851446  3.951349
C     -6.003317 -1.477309  0.333175
N     -5.978229 -0.290611 -0.315157
C     -5.579013 -0.180383 -1.716910
C     -4.561360  0.947275 -1.837581
C     -4.805955  2.109970 -2.565022
C     -3.840197  3.114417 -2.629300
C     -2.626964  2.965149 -1.966299
C     -2.376634  1.802168 -1.239770
C     -3.336591  0.802089 -1.177381
C     -6.759836 -0.049195 -2.657903
C     -7.952674  0.557425 -2.266999
C     -9.000181  0.700297 -3.174335
C     -8.864968  0.238279 -4.480567
C     -7.676114 -0.371935 -4.875568
C     -6.632038 -0.515006 -3.967685
O     -5.822694 -2.563234 -0.217487
C      0.616590 -1.479014  2.363305
N      0.405197 -1.231380  0.936055
P      1.565894 -0.472528  0.153944
H      0.368017 -1.815964  6.435797
H      0.940026 -2.514073  4.913765
H     -0.801485 -2.422583  5.258585
H     -0.637611  0.493958  6.515726
H     -1.928484 -0.114420  5.468263
H     -1.031695  1.346250  5.008386
H      1.467502  1.167351  4.378072
H      2.279566 -0.405412  4.444565
H      1.698388  0.346021  5.934429
H     -1.851446 -1.977527  3.072328
H     -4.400621 -2.341681  2.425944
H     -8.379505 -2.586349  0.696136
H     -8.842502 -1.168171  1.663784
H     -9.273499 -2.797413  2.212493
H     -5.801465 -3.890665  3.138949
H     -6.469915 -4.117408  1.503112
H     -7.473753 -4.400642  2.942746
H     -7.826664 -0.833198  3.981543
H     -6.493535 -1.868198  4.532575
H     -8.140297 -2.518774  4.439549
H     -5.998203  0.561002  0.240397
H     -8.067694  0.918675 -1.248713
H     -9.925649  1.173424 -2.857710
H     -9.683786  0.347148 -5.186162
H     -7.565212 -0.743981 -5.890379
H     -5.705091 -0.994919 -4.274459
H      0.354612 -2.526330  2.596179
H      1.659288 -1.358637  2.699973
C      5.307946 -1.704950 -1.074110
C      5.316154 -3.025899 -0.591244
H      6.199696 -3.630703 -0.762671
C      4.237436 -3.582172  0.090257
C      4.238902 -5.017353  0.619768
C      3.105900 -2.777486  0.293895
H      2.229541 -3.168163  0.804718
C      3.078418 -1.467292 -0.158813
C      4.175876 -0.932373 -0.844995
H      4.133118  0.095032 -1.190312
C      1.842939  3.349749  1.593882
C      1.424503  2.198057  0.938321
C      2.215298  1.041318  0.950345
C      3.413398  1.024940  1.654846
C      3.854655  2.162106  2.345513
C      3.057642  3.302580  2.300135
C      1.147866  1.429286 -3.438399
C      1.544177  1.094338 -2.144324
H      2.292602  1.686502 -1.630882
C      0.965661  0.007599 -1.487211
C     -0.013585 -0.764730 -2.112292
C     -0.422173 -0.458933 -3.412389
C      0.174978  0.633355 -4.048977
H     -0.133823  0.877443 -5.061248
H     -0.451056 -1.591016 -1.563539
H      4.018182  0.123036  1.654339
H      3.383851  4.194301  2.823333
H      0.485297  2.187596  0.396671
H     -3.133190 -0.105097 -0.611092
H     -1.428381  1.666165 -0.729252
H     -4.042910  4.017861 -3.197837
H     -1.877369  3.749916 -2.011168
H     -5.749694  2.232491 -3.088358
H     -5.069290 -1.123247 -1.960704
C      5.553888 -5.748842  0.327652
H      6.408856 -5.249046  0.796623
H      5.743583 -5.827548 -0.748593
H      5.499411 -6.765485  0.731091
C      3.089220 -5.801266 -0.042286
H      3.214081 -5.824788 -1.130463
H      2.115376 -5.352921  0.177826
H      3.077982 -6.833557  0.326389
C      4.027030 -4.992028  2.146230
H      3.072394 -4.527547  2.413387
H      4.828501 -4.430205  2.638818
H      4.027975 -6.014120  2.542337
C      6.528473 -1.169869 -1.826123
C      7.765168 -1.237989 -0.909642
H      7.982271 -2.264067 -0.596502
H      7.612877 -0.632000 -0.009339
H      8.645112 -0.853501 -1.438276
C      6.771467 -2.034123 -3.078588
H      5.898768 -2.008866 -3.740422
H      6.969996 -3.078282 -2.817007
H      7.637321 -1.655015 -3.633755
C      6.340890  0.284943 -2.273243
H      5.487754  0.392433 -2.952822
H      7.237228  0.618768 -2.806521
H      6.191188  0.955150 -1.418784
C      1.737229  2.625479 -4.188673
C     -1.461774 -1.292641 -4.165495
C      2.402370  2.133983 -5.488501
H      3.201761  1.418150 -5.266098
H      2.838176  2.980950 -6.030991
H      1.682355  1.644105 -6.151466
C      0.607509  3.615500 -4.530858
H      0.129991  3.983548 -3.616128
H     -0.165148  3.150608 -5.151367
H      1.012779  4.474259 -5.078633
C      2.791098  3.368745 -3.358795
H      3.175562  4.215863 -3.936578
H      3.640328  2.722533 -3.107943
H      2.369005  3.763500 -2.427213
C     -2.549085 -0.376526 -4.757976
H     -3.303402 -0.984602 -5.270866
H     -2.141839  0.327552 -5.489821
H     -3.045284  0.199108 -3.969781
C     -2.146275 -2.322251 -3.258505
H     -2.643264 -1.840285 -2.409442
H     -1.437006 -3.060933 -2.870147
H     -2.907089 -2.862700 -3.831911
C     -0.749755 -2.041890 -5.309267
H     -0.279293 -1.343478 -6.009657
H     -1.470951 -2.651191 -5.866849
H      0.028854 -2.703272 -4.913132
C      5.196035  2.112201  3.080726
C      1.028267  4.644355  1.570953
C      5.538210  3.439714  3.766272
H      5.619064  4.259950  3.044366
H      6.503807  3.346118  4.274408
H      4.789677  3.711094  4.518995
C      6.309125  1.788861  2.063990
H      7.282076  1.754309  2.568096
H      6.352397  2.554635  1.281239
H      6.144598  0.819814  1.581275
C      5.152390  1.009355  4.155123
H      4.369397  1.218842  4.892045
H      6.114388  0.956772  4.678071
H      4.951853  0.026055  3.717498
C     -0.158920  4.560646  0.603112
H     -0.880292  3.796823  0.907928
H      0.175839  4.345069 -0.419530
H     -0.682228  5.522810  0.588937
C      1.925051  5.815502  1.125380
H      2.755398  5.988880  1.816794
H      1.332962  6.736514  1.079607
H      2.343246  5.626281  0.129870
C      0.490952  4.914817  2.989727
H      1.308504  5.019388  3.711473
H     -0.158172  4.094826  3.314238
H     -0.093879  5.842141  2.999833
