180
temp
C      0.838637 -2.909253  4.449223
C      0.242286 -1.539739  4.799626
C     -0.900567 -1.739726  5.804063
C      1.316522 -0.649806  5.442806
C     -0.331355 -0.819863  3.543391
H     -0.828654  0.097263  3.890498
N     -1.326557 -1.628710  2.840658
C     -2.629396 -1.394066  2.890007
C     -3.586790 -0.650775  3.739120
C     -4.697226 -1.209588  2.874929
O     -5.924726 -1.113923  2.830375
O     -3.510980  0.113885  4.691491
C     -3.672907 -1.884917  2.068482
N     -3.656929 -2.650076  0.981502
C     -4.890682 -3.176088  0.388803
H     -5.638401 -3.187645  1.192854
C     -4.716666 -4.639594 -0.083597
C     -3.555938 -4.812951 -1.074084
C     -4.448607 -5.504124  1.158824
C     -6.031973 -5.094517 -0.731520
C     -5.387962 -2.181584 -0.684003
N     -6.111302 -1.159654 -0.167347
C     -6.477757 -0.015162 -0.997586
C     -5.269287  0.821270 -1.400011
C     -4.155238  0.944055 -0.571123
C     -3.095072  1.766399 -0.937054
C     -3.126500  2.464772 -2.139681
C     -4.231802  2.336691 -2.978102
C     -5.297473  1.522261 -2.606551
C     -7.508297  0.829624 -0.269297
C     -7.184309  1.478788  0.925127
C     -8.135965  2.242981  1.590472
C     -9.419041  2.380172  1.063206
C     -9.745729  1.742613 -0.129729
C     -8.794552  0.967285 -0.789946
O     -5.120625 -2.267953 -1.880659
C      0.764961 -0.430451  2.535461
N      0.204253  0.000756  1.241831
P      0.876849  1.273762  0.455978
H      1.709457 -2.832846  3.789866
H      0.094448 -3.550608  3.965337
H      1.166056 -3.409562  5.367377
H     -1.363520 -0.785085  6.074987
H     -0.516565 -2.214287  6.713980
H     -1.683322 -2.385975  5.392823
H      2.219009 -0.580316  4.825186
H      1.613375 -1.067085  6.411096
H      0.935392  0.364432  5.617528
H     -1.027049 -2.099642  1.962317
H     -2.758026 -2.726626  0.489452
H     -2.590517 -4.554492 -0.623296
H     -3.701163 -4.199151 -1.965033
H     -3.498937 -5.865120 -1.376188
H     -5.274373 -5.431855  1.876927
H     -3.525997 -5.200808  1.664685
H     -4.344622 -6.554249  0.864464
H     -6.879165 -4.937122 -0.052293
H     -5.980412 -6.164507 -0.960650
H     -6.226048 -4.553687 -1.661808
H     -6.278174 -1.118044  0.837969
H     -6.184920  1.386117  1.342585
H     -7.873829  2.733815  2.523554
H     -10.160616  2.981059  1.582102
H     -10.743973  1.843015 -0.546729
H     -9.054215  0.461812 -1.717087
H      1.445124 -1.277181  2.369734
H      1.357605  0.379330  2.971818
C      4.800333  0.664343 -0.478239
C      5.438411  1.231501  0.623441
H      6.521685  1.216256  0.666337
C      4.739080  1.832103  1.683031
C      5.514492  2.439607  2.853016
C      3.350297  1.861508  1.616970
H      2.770974  2.332878  2.403093
C      2.687726  1.301146  0.517342
C      3.401966  0.703428 -0.515037
H      2.864956  0.279132 -1.358567
C     -1.409081  4.001480  2.438552
C     -0.874364  2.804072  1.944491
C      0.305763  2.813739  1.209095
C      0.989945  4.011647  0.961394
C      0.477134  5.214888  1.430370
C     -0.722698  5.181915  2.159701
C      0.475894  2.328279 -3.429144
C      0.704873  2.336007 -2.055582
H      1.125828  3.219305 -1.585159
C      0.410591  1.209949 -1.284060
C     -0.123461  0.061778 -1.863021
C     -0.378089  0.036831 -3.238399
C     -0.068333  1.169682 -3.995371
H     -0.260354  1.151410 -5.060128
H     -0.359251 -0.811515 -1.258693
H     -0.233020 -0.790450  0.703608
H      1.925127  3.989077  0.413641
H     -1.125897  6.119515  2.525456
H     -1.375900  1.858189  2.128598
H     -6.159943  1.422408 -3.262533
H     -4.262945  2.868244 -3.925590
H     -2.236285  1.858156 -0.280068
H     -2.286472  3.091236 -2.424989
H     -4.106717  0.388648  0.362278
H     -6.933004 -0.399393 -1.919164
C      6.359695  1.341088  3.525978
H      6.916317  1.763024  4.370400
H      7.083415  0.902954  2.831577
H      5.718960  0.536473  3.903388
C      4.585817  3.050255  3.909067
H      3.976769  3.862027  3.494514
H      5.188774  3.468682  4.721401
H      3.915976  2.299768  4.344277
C      6.441552  3.550574  2.322872
H      6.997059  4.001163  3.153119
H      5.859331  4.337621  1.830441
H      7.168901  3.163324  1.602563
C      5.556306  0.021218 -1.641765
C      7.076333  0.084024 -1.455814
H      7.397877 -0.452108 -0.555974
H      7.435825  1.117342 -1.394379
H      7.563911 -0.387551 -2.315187
C      5.138557 -1.457612 -1.757719
H      4.065466 -1.562674 -1.946739
H      5.377039 -2.001139 -0.836950
H      5.674619 -1.932509 -2.587173
C      5.192996  0.759386 -2.945545
H      4.122507  0.692183 -3.165166
H      5.737181  0.317729 -3.788000
H      5.460890  1.819917 -2.879274
C      0.847900  3.563626 -4.252927
C     -0.994090 -1.221944 -3.846005
C      0.483093  3.409309 -5.733658
H     -0.592705  3.252717 -5.870110
H      1.018405  2.574846 -6.199613
H      0.759210  4.322859 -6.270566
C      0.110518  4.798165 -3.699551
H      0.352742  4.982114 -2.647452
H     -0.974585  4.671945 -3.781107
H      0.395065  5.689491 -4.270353
C      2.369521  3.788200 -4.145662
H      2.662349  4.667506 -4.730991
H      2.916292  2.919750 -4.529712
H      2.680761  3.952143 -3.108281
C     -0.062396 -2.421255 -3.581929
H     -0.496912 -3.328366 -4.017466
H      0.070734 -2.597100 -2.509693
H      0.923015 -2.258869 -4.034408
C     -1.212797 -1.094116 -5.357399
H     -0.272137 -0.929698 -5.896004
H     -1.902424 -0.276929 -5.598048
H     -1.654991 -2.022081 -5.734049
C     -2.353713 -1.478806 -3.171637
H     -3.026199 -0.623052 -3.296722
H     -2.244395 -1.667798 -2.099061
H     -2.833980 -2.357253 -3.614969
C      1.174104  6.552711  1.179514
C     -2.681441  3.966029  3.286423
C      1.529458  7.201699  2.531085
H      0.637486  7.393054  3.135572
H      2.035554  8.159349  2.364470
H      2.199114  6.553392  3.107341
C      0.222563  7.478562  0.397384
H      0.712441  8.439397  0.202910
H     -0.698981  7.676810  0.953361
H     -0.050288  7.029389 -0.564257
C      2.464605  6.390479  0.367701
H      3.194696  5.757872  0.886074
H      2.923218  7.373175  0.217358
H      2.270251  5.959468 -0.621612
C     -3.242999  5.369001  3.547835
H     -2.553553  5.984258  4.136392
H     -4.172379  5.280665  4.119409
H     -3.471203  5.893773  2.612917
C     -2.335155  3.312128  4.638629
H     -3.225658  3.274919  5.275895
H     -1.557116  3.885000  5.156257
H     -1.988202  2.283008  4.506330
C     -3.769544  3.135916  2.578613
H     -3.470373  2.092460  2.442435
H     -4.008429  3.555577  1.594975
H     -4.680836  3.131159  3.186656
F     -0.912998 -2.226826  0.299017
