220
temp
C     -0.688441  0.513290  5.356486
C      0.081588  1.627311  4.637477
C     -0.521742  2.987948  5.017819
C      1.552971  1.602168  5.079458
C      0.010855  1.491257  3.088555
H      0.482442  2.388654  2.670301
N     -1.372559  1.504176  2.599057
C     -1.852653  2.556651  1.948935
C     -1.232841  3.807273  1.467068
C     -2.575976  4.212462  0.931370
O     -3.029914  5.167429  0.302530
O     -0.101852  4.281496  1.473733
C     -3.119342  2.937188  1.434142
N     -4.332092  2.390075  1.410481
C     -5.461250  3.069276  0.750183
H     -5.232326  4.141752  0.779068
C     -6.793590  2.879796  1.507116
C     -7.189607  1.409161  1.688727
C     -6.645646  3.533677  2.890250
C     -7.881821  3.619404  0.715414
C     -5.454425  2.634829 -0.734359
N     -4.614247  3.386262 -1.483892
C     -4.124278  2.945153 -2.788773
C     -2.627824  3.239948 -2.825101
C     -1.810175  2.584918 -1.897661
C     -0.458100  2.885824 -1.812305
C      0.103405  3.829548 -2.670509
C     -0.697299  4.461947 -3.615504
C     -2.060824  4.174434 -3.688688
C     -4.896379  3.530427 -3.953582
C     -4.933823  2.829402 -5.160355
C     -5.593972  3.356416 -6.265414
C     -6.228212  4.593978 -6.174023
C     -6.197812  5.295331 -4.971947
C     -5.534875  4.766303 -3.866647
O     -6.066645  1.663023 -1.172783
C      0.772110  0.284815  2.527761
N      0.684773  0.265226  1.053638
P      1.980232 -0.225794  0.152506
H     -0.281446 -0.478651  5.134604
H     -1.750052  0.519624  5.085136
H     -0.624716  0.665786  6.439797
H     -1.576865  3.053150  4.732269
H      0.016577  3.807128  4.526084
H     -0.457080  3.136388  6.101257
H      2.155657  2.305184  4.491139
H      1.993946  0.603821  4.986150
H      1.626696  1.895265  6.132272
H     -1.980612  0.705482  2.764959
H     -4.452647  1.435706  1.745988
H     -6.449003  0.847359  2.267383
H     -7.327757  0.911334  0.727192
H     -8.131716  1.359255  2.246731
H     -7.594079  3.467685  3.434220
H     -6.374782  4.592781  2.802357
H     -5.877694  3.031502  3.488479
H     -7.611651  4.671424  0.560728
H     -8.825731  3.592127  1.270203
H     -8.048183  3.154930 -0.261318
H     -4.121224  4.155654 -1.032609
H     -4.442237  1.861149 -5.230519
H     -5.621047  2.797514 -7.196830
H     -6.749216  5.005501 -7.033896
H     -6.694421  6.258381 -4.891354
H     -5.518784  5.316317 -2.929805
H      0.400604 -0.654901  2.952361
H      1.822892  0.391322  2.814768
C      3.263027 -4.004140 -0.705063
C      3.430852 -4.526224  0.578559
H      3.806474 -5.536665  0.682946
C      3.142195 -3.798142  1.742233
C      3.446583 -4.385552  3.122886
C      2.661668 -2.498547  1.598155
H      2.439856 -1.900306  2.474215
C      2.484977 -1.954264  0.321310
C      2.782312 -2.696749 -0.818902
H      2.649334 -2.247813 -1.796409
C      4.246914  3.016346  1.072668
C      3.160252  2.170331  0.844738
C      3.373856  0.805531  0.637273
C      4.657336  0.264659  0.655151
C      5.761213  1.088589  0.882616
C      5.529794  2.452325  1.086018
C      2.461458  0.781816 -3.748435
C      2.621706  0.663303 -2.363118
H      3.523556  1.034421 -1.886709
C      1.637655  0.053431 -1.593567
C      0.465279 -0.442672 -2.177501
C      0.272501 -0.314526 -3.549216
C      1.287691  0.288342 -4.309978
H      1.145401  0.368973 -5.381438
H     -0.289595 -0.908658 -1.554119
H     -0.249881 -0.009951  0.701217
H      4.790441 -0.798769  0.479811
H      6.378152  3.101642  1.257830
H      2.147703  2.566951  0.818306
H     -2.683761  4.686606 -4.416244
H     -0.267623  5.198039 -4.289460
H      0.158357  2.385830 -1.071602
H      1.160043  4.070439 -2.594512
H     -2.240637  1.844744 -1.225183
H     -4.262318  1.853851 -2.818080
C      2.632281 -3.695391  4.227859
H      2.821317 -4.195022  5.183620
H      1.557924 -3.746346  4.018936
H      2.913081 -2.644148  4.352826
C      4.947836 -4.166539  3.402156
H      5.562951 -4.655857  2.638787
H      5.214555 -4.584701  4.380061
H      5.191220 -3.097790  3.405185
C      3.143939 -5.893049  3.168719
H      3.278034 -6.260537  4.191693
H      3.816494 -6.469699  2.526888
H      2.117606 -6.102517  2.853054
C      3.680438 -4.777373 -1.957907
C      5.105259 -4.316273 -2.329935
H      5.125827 -3.239676 -2.536770
H      5.450760 -4.845706 -3.225748
H      5.807435 -4.522212 -1.514035
C      3.688300 -6.293990 -1.717841
H      3.917994 -6.806602 -2.657873
H      2.711385 -6.641461 -1.365268
H      4.451865 -6.592975 -0.992326
C      2.736221 -4.481100 -3.136882
H      1.700534 -4.714899 -2.873188
H      3.023550 -5.098831 -3.994512
H      2.789510 -3.436335 -3.460455
C      3.580683  1.419661 -4.572821
C     -0.982262 -0.831057 -4.254041
C      3.246348  1.469964 -6.067518
H      3.100953  0.467601 -6.485344
H      4.075932  1.938454 -6.607126
H      2.345398  2.063139 -6.259768
C      3.823131  2.859146 -4.080568
H      4.089987  2.887717 -3.018801
H      2.926180  3.471063 -4.223617
H      4.643973  3.313573 -4.646984
C      4.867964  0.591418 -4.386920
H      5.680504  1.024627 -4.981276
H      4.714037 -0.442779 -4.714908
H      5.189651  0.572685 -3.340222
C     -2.041929 -1.319888 -3.260753
H     -1.690645 -2.180243 -2.680008
H     -2.934533 -1.636887 -3.810490
H     -2.334627 -0.526652 -2.564388
C     -0.584819 -2.003900 -5.171408
H     -1.470309 -2.391043 -5.688532
H     -0.142290 -2.819125 -4.587517
H      0.141906 -1.692424 -5.929093
C     -1.604400  0.298346 -5.097709
H     -0.931169  0.643341 -5.888367
H     -1.857067  1.157482 -4.466978
H     -2.521183 -0.063499 -5.577096
C      7.161887  0.473880  0.877622
C      4.002196  4.509828  1.296724
C      8.253874  1.504049  1.186789
H      9.229729  1.007725  1.179312
H      8.116267  1.955901  2.175438
H      8.282672  2.303886  0.438640
C      7.435945 -0.126035 -0.516017
H      6.712883 -0.909120 -0.767753
H      8.437542 -0.570119 -0.542436
H      7.382423  0.649390 -1.288503
C      7.231500 -0.643421  1.936709
H      7.016145 -0.246433  2.934934
H      8.235186 -1.083088  1.949585
H      6.517499 -1.446537  1.727484
C      3.187014  5.076787  0.117326
H      3.717012  4.922902 -0.830048
H      3.035546  6.152916  0.256712
H      2.198005  4.615395  0.045520
C      5.308758  5.304081  1.409195
H      5.919982  5.211697  0.504044
H      5.908125  4.987387  2.270118
H      5.071270  6.364069  1.544792
C      3.202392  4.689584  2.602104
H      3.755188  4.277314  3.454147
H      2.226295  4.199554  2.540322
H      3.026821  5.755564  2.787105
O     -6.000940 -1.744066  2.937952
O     -1.906808 -0.405492  0.193411
H     -4.761397 -2.506739  5.377882
H     -4.755981 -0.704089  5.404317
H     -1.277992 -4.053633  4.146798
C     -1.758977 -2.799030  2.459494
C     -1.201330 -3.956150  3.068450
C     -4.290200 -1.601781  4.989021
C     -2.393222 -1.532971  0.386074
C     -1.637398 -2.647209  1.044549
C     -0.608488 -4.928309  2.306439
S     -4.555837 -1.558110  3.205391
H     -0.204055 -5.819380  2.771937
C     -1.036157 -3.630828  0.294176
C     -0.497410 -4.763585  0.915759
H     -4.027876  0.087737 -0.615250
N     -3.706615 -2.884918  2.704134
H     -0.998558 -3.547933 -0.786946
N      0.142437 -5.763648  0.128282
H     -3.215359 -1.605825  5.180606
N     -3.648452 -1.864386  0.016296
C     -4.551301 -0.865173 -0.562660
O     -3.987293 -0.249952  2.746081
H     -3.924094 -5.397671  3.782858
H     -4.864356 -1.159092 -1.569311
C     -4.265225 -3.618044  1.632523
C     -4.187230 -3.159185  0.304732
H     -5.436151 -0.759048  0.071633
C     -4.906322 -5.395077  3.299361
C     -4.811307 -4.889376  1.889203
H     -5.555895 -4.747155  3.898923
H     -5.313438 -6.409103  3.319479
C     -4.669690 -3.931053 -0.748522
H     -4.597290 -3.557406 -1.765933
C     -5.283869 -5.651168  0.821024
C     -5.217924 -5.178873 -0.486743
H     -5.713229 -6.629928  1.019109
H     -5.587735 -5.789449 -1.305095
F     -1.635989 -1.651387  3.228906
O      0.194295 -5.611465 -1.102757
O      0.628732 -6.752797  0.699165
