42
temp
O     -1.250346  1.831209  1.894260
O      0.513603 -1.829004 -0.506313
H     -1.425322  0.368103  4.325296
H      0.069715  1.362782  4.485263
H      3.529674  0.588935 -4.400446
C      2.165611  0.060795 -2.833624
C      3.416639  0.374738 -3.343121
C     -0.382071  0.480135  4.024294
C      0.609473 -0.690885 -0.974947
C      1.944122 -0.235099 -1.491632
C      4.497777  0.403058 -2.477041
S     -0.326845  0.740187  2.244088
H      5.491533  0.648080 -2.832063
C      3.037237 -0.226513 -0.631053
C      4.288194  0.102366 -1.133889
H     -0.621553  1.709764 -2.511164
N     -0.987399 -0.718415  1.639670
H      2.903752 -0.462038  0.418039
N      5.435024  0.128027 -0.213978
H      0.196291 -0.417117  4.256224
N     -0.426737  0.181162 -1.037691
C     -0.291928  1.579929 -1.474933
O      1.094395  0.815692  1.853575
H     -4.704997 -1.610136  2.546000
H     -0.900722  2.203588 -0.815558
C     -2.030555 -0.605523  0.664044
C     -1.746090 -0.230821 -0.655799
H      0.748417  1.896467 -1.381903
C     -3.670542 -1.268261  2.464594
C     -3.346888 -0.900170  1.045667
H     -3.005072 -2.054228  2.833392
H     -3.546697 -0.403696  3.127279
C     -2.760890 -0.167497 -1.605376
H     -2.524781  0.114500 -2.627073
C     -4.352220 -0.825587  0.079727
C     -4.064767 -0.468362 -1.232642
H     -5.375449 -1.055359  0.364669
H     -4.859835 -0.426479 -1.971101
F      1.119859  0.028972 -3.680681
O      5.230367 -0.143385  0.963074
O      6.532122  0.419227 -0.679170
H     -0.222077 -1.299147  1.282082
